104
xyz from es_2_sing_1det.cube
C 	  2.63888258 	 -1.54273742 	  0.38644650
C 	  3.59632933 	 -1.23526427 	 -0.60888563
B 	  4.55960867 	 -2.35203888 	 -1.10858771
C 	  4.63442904 	 -3.70552241 	 -0.34484788
C 	  3.66599393 	 -4.01690935 	  0.63586997
B 	  2.57472566 	 -2.97215947 	  1.00490283
C 	  5.57590416 	 -4.66750526 	 -0.72210945
C 	  5.55244838 	 -5.92024826 	 -0.14177876
C 	  4.55956898 	 -6.24435927 	  0.80935544
C 	  3.62943148 	 -5.29874599 	  1.19353494
C 	  1.67558684 	 -0.59271027 	  0.73591569
C 	  1.66653421 	  0.64250003 	  0.11811501
C 	  2.63546145 	  0.96053608 	 -0.85941137
C 	  3.58107844 	  0.02027596 	 -1.22498448
C 	  7.39033123 	 -7.44255627 	 -1.22563272
C 	  7.86299235 	 -8.77626338 	 -1.23551510
C 	  7.30360649 	 -9.76319589 	 -0.45890463
C 	  6.21576200 	 -9.46222474 	  0.39483132
C 	  5.78924197 	 -8.13823384 	  0.40037074
C 	  6.34653334 	 -7.12317451 	 -0.39822758
C 	  5.48573923 	 -10.35772335 	  1.21269328
C 	  4.41517768 	 -9.90366863 	  1.94594032
C 	  4.00006829 	 -8.55085716 	  1.92539184
C 	  4.69688942 	 -7.66246116 	  1.14893588
C 	  2.17397285 	  4.30378057 	 -2.67504814
C 	  2.83707798 	  3.08977282 	 -2.37544439
C 	  2.31727670 	  2.28560015 	 -1.39653739
C 	  1.14742032 	  2.70637967 	 -0.73598713
C 	  0.45623652 	  3.87619160 	 -1.02850731
C 	  1.02014790 	  4.69405620 	 -2.03686197
C 	  0.71191327 	  1.74544406 	  0.19423980
C 	 -0.46004924 	  1.96379635 	  0.86786233
C 	 -1.17915243 	  3.15215118 	  0.60056061
C 	 -0.74780260 	  4.08437046 	 -0.31358038
C 	  7.24371421 	 -1.38879129 	 -3.73994274
C 	  6.55248384 	 -1.49225656 	 -2.53247456
C 	  5.35157746 	 -2.19711695 	 -2.45413675
C 	  4.85187432 	 -2.80728689 	 -3.62071223
C 	  5.54152775 	 -2.69315394 	 -4.81386934
C 	  6.73825310 	 -1.98531958 	 -4.88543580
C 	  7.17352996 	 -0.88861137 	 -1.29926350
C 	  3.53457011 	 -3.54348834 	 -3.62009786
O 	  7.32435341 	 -1.93778411 	 -6.10006639
C 	  8.52527038 	 -1.22858553 	 -6.23734714
C 	  0.43249498 	 -3.82975418 	  4.11527547
C 	  1.50130126 	 -3.43755075 	  3.32785072
C 	  1.37557350 	 -3.38960835 	  1.92998774
C 	  0.15557547 	 -3.75815491 	  1.35692106
C 	 -0.91574652 	 -4.15021863 	  2.15787899
C 	 -0.78339241 	 -4.18523958 	  3.53819868
C 	  2.77691371 	 -3.00071441 	  3.99889034
C 	 -0.02025796 	 -3.81604743 	 -0.14052196
O 	 -1.76559142 	 -4.54712167 	  4.39031905
C 	 -3.01471220 	 -4.89913038 	  3.85951087
H 	  6.29295838 	 -4.44142328 	 -1.50333171
H 	  2.84794834 	 -5.55430738 	  1.90065386
H 	  0.91125116 	 -0.84872834 	  1.46161349
H 	  4.28564461 	  0.23164787 	 -2.02190213
H 	  7.84921893 	 -6.70907374 	 -1.87651809
H 	  8.68694038 	 -9.02766861 	 -1.89050953
H 	  7.68734572 	 -10.77481557 	 -0.51189062
H 	  5.76077805 	 -11.40477833 	  1.25093427
H 	  3.86115291 	 -10.60483748 	  2.55647593
H 	  3.13892386 	 -8.24920866 	  2.50858221
H 	  2.58449798 	  4.93763014 	 -3.45009067
H 	  3.72420660 	  2.81310361 	 -2.93128476
H 	  0.53653493 	  5.62185844 	 -2.31669989
H 	 -0.85227330 	  1.24814603 	  1.57988249
H 	 -2.10801514 	  3.32459893 	  1.12843450
H 	 -1.33926242 	  4.97329298 	 -0.49545278
H 	  8.17551279 	 -0.83665728 	 -3.75680392
H 	  5.15401230 	 -3.15577075 	 -5.71471000
H 	  7.70386399 	  0.02947676 	 -1.56593179
C 	  8.14155179 	 -1.84827854 	 -0.61004347
H 	  6.39729626 	 -0.58936216 	 -0.58948811
H 	  3.55203190 	 -4.31395877 	 -4.39506629
C 	  2.34191572 	 -2.61950094 	 -3.86067083
H 	  3.39361423 	 -4.07933110 	 -2.67795439
H 	  8.81765298 	 -1.31003649 	 -7.28226319
H 	  9.32809577 	 -1.64462309 	 -5.61961896
H 	  8.41260854 	 -0.16765658 	 -5.99039282
H 	  0.52947676 	 -3.86052742 	  5.19457215
H 	 -1.84593429 	 -4.42713708 	  1.67602447
H 	  3.64193065 	 -3.26756897 	  3.38520401
H 	  2.90014850 	 -3.54342060 	  4.93945633
C 	  2.79674304 	 -1.49953222 	  4.27678936
H 	  0.65244803 	 -3.11081132 	 -0.63549848
H 	 -1.03046792 	 -3.49150673 	 -0.40513651
C 	  0.22293073 	 -5.21667430 	 -0.70024438
H 	 -3.65455999 	 -5.14409817 	  4.70481332
H 	 -3.47676967 	 -4.07764356 	  3.30181150
H 	 -2.95781930 	 -5.77378205 	  3.20304162
H 	  2.42871031 	 -2.10863110 	 -4.82003584
H 	  2.26310641 	 -1.85612201 	 -3.08649351
H 	  1.40890056 	 -3.18510199 	 -3.86465236
H 	  1.23328568 	 -5.56082472 	 -0.47771264
H 	  0.09737232 	 -5.23145792 	 -1.78380094
H 	 -0.47300561 	 -5.93937431 	 -0.27282633
H 	  2.74068359 	 -0.92445466 	  3.35258553
H 	  3.71313568 	 -1.20881599 	  4.79140047
H 	  1.95201739 	 -1.20722052 	  4.90114813
H 	  8.93355920 	 -2.16405501 	 -1.29025055
H 	  7.62833611 	 -2.74480482 	 -0.26238407
H 	  8.60980168 	 -1.37992493 	  0.25630488
