78
Coordinates from ORCA-job orca_s1opt
  C   0.16224831515749     -4.53678960162433      1.05843894226882
  C   0.05640032316845     -4.40735360215026      2.57381725328743
  C   1.62869649779739     -4.17549298180541      0.85445134564303
  C   2.32600839659187     -4.12413676829517     -0.33514748896327
  H   1.82010560688832     -4.31874947049217     -1.27163523305781
  C   3.66777394521001     -3.76702513321627     -0.30979214750874
  H   4.21911422090220     -3.68578111437033     -1.23682337769163
  C   4.29702926010488     -3.47551690048675      0.89530312900512
  H   5.33690632189546     -3.17836540721420      0.89803393037972
  C   3.59692941770159     -3.53323715821800      2.09021194246887
  H   4.08732184852759     -3.28859621133107      3.02298384573984
  C   2.25523843095957     -3.88284089774645      2.06410100474343
  C   -1.05666665105561     -4.57926344687226      3.37254121721889
  H   -2.00971965429305     -4.84839832202065      2.93870714744123
  C   -0.94201819418655     -4.35841805896244      4.73771833730896
  H   -1.81016620455585     -4.47400324835531      5.37189447548736
  C   0.26880842178486     -3.97051051024314      5.29799185149784
  H   0.33434593879168     -3.79170296295262      6.36208687527227
  C   1.38667143810610     -3.79100837062145      4.49800147869271
  H   2.32483579364204     -3.47091458563597      4.93198168152109
  C   1.27262644734452     -4.01011530458286      3.13545612811960
  C   -2.15080026617280     -3.72508312811435      0.17511527092497
  C   -2.95372166960432     -2.66202380149894     -0.12916001849026
  H   -4.00273380657220     -2.84263362072109     -0.32784236379671
  C   -2.48963261533750     -1.33930868572372     -0.24197881003346
  C   -3.38542160363825     -0.31057978240510     -0.55016491814536
  N   -4.15107099610996      0.52339124529271     -0.81168191576962
  C   -0.74547553694142     -3.51098547018668      0.39540752247208
  C   -0.27323926100374     -2.22112400940678      0.26568402021408
  H   0.77193392961873     -2.01293447844669      0.44320170535879
  C   -1.07449675223231     -1.13032537401443     -0.06509476883744
  C   -0.46963849751750      0.13071237601453     -0.20821266677179
  N   0.05389278982937      1.15917932599265     -0.31884180734495
  H   5.47893904405129     -6.31447148360120     -0.01579491940718
  H   7.23002971178804     -7.75514469728556      1.00954925052445
  C   5.21049778053283     -7.20274884898738      0.53456357999954
  C   6.18515147457919     -8.00784570313541      1.11218397289821
  C   3.88659350556404     -7.52547943812610      0.67553257105795
  H   3.13538921330180     -6.89222984221059      0.23340830366992
  C   5.82177967434734     -9.14871368891446      1.81335254785218
  H   6.60081203184136     -9.77136220997133      2.22392462265706
  C   3.51462813850582     -8.65371325314842      1.43154440148828
  C   4.49882898515091     -9.50186212777129      1.98805590312000
  N   2.18720815345374     -8.91963827549199      1.65131012892776
  C   2.68993940017589    -10.76643552072083      3.11779376939026
  C   1.76829092165561     -9.85617558847489      2.56265162324928
  H   2.89170549605853    -12.38162116023514      4.49665392525129
  C   2.21744748742114    -11.66513906323128      4.05480721681616
  C   0.42004402201634     -9.86421808279390      2.96389249241061
  C   0.88856568481912    -11.67471028913883      4.44961586250637
  C   -0.01050361013411    -10.76804234979501      3.89991372577879
  H   -0.26013180893494     -9.13808836385737      2.54998334591631
  H   0.55738095008707    -12.38601295136244      5.19153070808533
  H   -1.04257615835555    -10.76112609838075      4.21554163655338
  C   4.10451139678945    -10.81861763100605      2.60565521197748
  C   5.08020768689682    -11.25285040110478      3.69198454448547
  C   4.12787656593256    -11.86082499334210      1.46733636214532
  C   1.18947906994518     -8.14365524396653      0.97084770169688
  C   0.44469193212252     -8.73052587275228     -0.03612340290993
  C   -0.52271069167314     -7.95761281850155     -0.63702333523455
  C   -0.73827557157735     -6.61683836223957     -0.30109691454025
  C   0.07334999016794     -6.02197775413046      0.66762283756833
  C   0.99488534478554     -6.83398918009099      1.32836217214296
  H   1.59360350450976     -6.41274425943178      2.12452358824556
  H   0.60536405034497     -9.76046187320221     -0.32200830210632
  H   -1.14814862502842     -8.40052878551782     -1.40006789142001
  C   -1.89334350843355     -5.91921113243210     -0.94698020517387
  C   -2.70053344023316     -5.10672444811845      0.06053285779130
  H   -2.51948373253800     -6.67577893818381     -1.42217020717868
  H   -1.54599281192533     -5.25178425900086     -1.73785744031779
  H   -2.71009122237518     -5.64674277603253      1.01493613343327
  H   -3.73857299308701     -5.04782534995187     -0.26671106975716
  H   3.44379041168904    -11.58536517416077      0.66493862618667
  H   3.83205755852761    -12.83647316221732      1.85240357645075
  H   5.13269077453602    -11.93195922386386      1.05179042122250
  H   5.09389889227473    -10.54522683749744      4.51947480026788
  H   6.08773320602445    -11.34608846300515      3.29422535020473
  H   4.82037647989800    -12.23612856300046      4.07637632801840
