    8
 
 C     0.000000     0.000000     0.000000
 H     0.000000     0.000000     1.089000
 H     1.026720     0.000000    -0.362996
 C    -0.683537    -1.183920    -0.483333
 H    -0.513360     0.889165    -0.363000
XX    -0.516870    -0.895245    -1.426142
 N    -1.247410    -2.160577    -0.860042
XX    -1.105643    -1.915030    -1.819004
